Version 4
SHEET 1 2012 680
WIRE -80 -208 -224 -208
WIRE 784 -208 -80 -208
WIRE 1152 -208 784 -208
WIRE 1152 -176 1152 -208
WIRE -224 -80 -224 -208
WIRE 1152 -80 1152 -96
WIRE 1552 -80 1152 -80
WIRE 1152 -48 1152 -80
WIRE 1552 32 1552 -80
WIRE 784 48 784 -208
WIRE 848 48 784 48
WIRE -80 64 -80 -208
WIRE 1152 96 1152 16
WIRE 784 144 784 48
WIRE 752 160 720 160
WIRE 992 176 816 176
WIRE 1104 176 992 176
WIRE 128 192 64 192
WIRE 272 192 208 192
WIRE 336 192 272 192
WIRE 448 192 416 192
WIRE 752 192 448 192
WIRE 1552 192 1552 112
WIRE 1680 192 1552 192
WIRE 1152 224 1152 192
WIRE 1280 224 1152 224
WIRE 720 256 720 160
WIRE 1152 256 1152 224
WIRE 1152 256 720 256
WIRE 272 272 272 192
WIRE 448 272 448 192
WIRE 1552 272 1552 192
WIRE 64 288 64 192
WIRE 848 288 848 48
WIRE 1680 288 1680 192
WIRE 992 304 992 176
WIRE 1152 304 1152 256
WIRE 1280 320 1280 224
WIRE -224 416 -224 0
WIRE -80 416 -80 128
WIRE -80 416 -224 416
WIRE 64 416 64 368
WIRE 64 416 -80 416
WIRE 272 416 272 336
WIRE 272 416 64 416
WIRE 448 416 448 336
WIRE 448 416 272 416
WIRE 784 416 784 208
WIRE 784 416 448 416
WIRE 848 416 848 352
WIRE 848 416 784 416
WIRE 992 416 992 384
WIRE 992 416 848 416
WIRE 1152 416 1152 384
WIRE 1152 416 992 416
WIRE 1280 416 1280 384
WIRE 1280 416 1152 416
WIRE 1552 416 1552 352
WIRE 1552 416 1280 416
WIRE 1680 416 1680 352
WIRE 1680 416 1552 416
WIRE 448 464 448 416
FLAG 448 464 0
SYMBOL voltage -224 -96 R0
WINDOW 123 0 0 Left 0
WINDOW 39 0 0 Left 0
SYMATTR InstName V1
SYMATTR Value 24
SYMBOL voltage 64 272 R0
WINDOW 3 -106 107 Left 2
WINDOW 123 24 72 Left 2
WINDOW 39 0 0 Left 0
SYMATTR Value PULSE(0 5 0 0 0 0.6e-3 1e-3)
SYMATTR Value2 AC 1
SYMATTR InstName V2
SYMBOL res 224 176 R90
WINDOW 0 0 56 VBottom 2
WINDOW 3 32 56 VTop 2
SYMATTR InstName R1
SYMATTR Value 98k
SYMBOL res 1136 288 R0
SYMATTR InstName R5
SYMATTR Value 6.8
SYMBOL diode 1136 -48 R0
SYMATTR InstName D1
SYMBOL voltage 1152 -192 R0
WINDOW 123 0 0 Left 0
WINDOW 39 24 44 Left 2
SYMATTR SpiceLine Rser=2.5
SYMATTR InstName V3
SYMATTR Value PULSE(10 12 0 5 0 6)
SYMBOL nmos 1104 96 R0
SYMATTR InstName M1
SYMATTR Value IRF530
SYMBOL cap 256 272 R0
SYMATTR InstName C1
SYMATTR Value 184e-9
SYMBOL cap 432 272 R0
SYMATTR InstName C2
SYMATTR Value 188e-9
SYMBOL res 432 176 R90
WINDOW 0 0 56 VBottom 2
WINDOW 3 32 56 VTop 2
SYMATTR InstName R2
SYMATTR Value 98k
SYMBOL Opamps\\OP07 784 112 R0
SYMATTR InstName U1
SYMBOL cap 832 288 R0
SYMATTR InstName C3
SYMATTR Value 96e-9
SYMBOL cap -96 64 R0
SYMATTR InstName C4
SYMATTR Value 100e-6
SYMBOL res 976 288 R0
SYMATTR InstName R6
SYMATTR Value 10k
SYMBOL cap 1264 320 R0
SYMATTR InstName C5
SYMATTR Value 220e-6
SYMBOL res 1536 16 R0
SYMATTR InstName R3
SYMATTR Value 98k
SYMBOL res 1536 256 R0
SYMATTR InstName R4
SYMATTR Value 21k
SYMBOL cap 1664 288 R0
SYMATTR InstName C6
SYMATTR Value 3.3e-6
TEXT -96 488 Left 2 !.tran 6
